LAMMPS (23 Jun 2022)
package intel 1
units            real
atom_style       full
boundary         p p p

read_data 	    data_crystal.lammps
Reading data file ...
  orthogonal box = (-1.3437134 -1.3437134 -1.3437134) to (20.155701 20.155701 20.155701)
  reading atoms ...
  1024 atoms
  scanning bonds ...
  reading bonds ...
  768 bonds
Finding 1-2 1-3 1-4 neighbors ...
     2 = max # of 1-2 neighbors
     1 = max # of 1-3 neighbors
     2 = max # of 1-4 neighbors
     3 = max # of special neighbors

pair_style 	    lj/cut/coul/long 8.5125
special_bonds   lj/coul 0.0 0.0 0.0
bond_style	    harmonic

variable        TK equal 50
variable        kB equal 0.001987204259
variable 	    e_AA equal 114.128*0.001987204259

# Only solute-solute LJ interactions exist
pair_coeff 	    1 1 0.226795647671152 	3.405
pair_coeff      1 2 0.0		    0.5
pair_coeff      1 3 0.0         0.5
pair_coeff      1 4 0.0         0.5
pair_coeff      2 2 0.0         0.5
pair_coeff      2 3 0.0         0.5
pair_coeff      2 4 0.0         0.5
pair_coeff      3 3 0.0         0.5
pair_coeff      3 4 0.0         0.5
pair_coeff      4 4 0.0         0.5

pair_modify 	shift yes
kspace_style    pppm 1.0e-6

variable 	    q equal 0.5
variable        alpha equal 0.5

variable        K1 equal 0.5*332.0716*(0.5^2)/0.5

set             type 2 charge 0.5
Setting atom values ...
  256 settings made for charge
set             type 4 charge -0.5
Setting atom values ...
  256 settings made for charge

bond_coeff      1   100000       0.500
bond_coeff     	2   83.0179	     0.0
bond_coeff      3   83.0179        0.0

fix             DRUDE all drude C D C D

neighbor         2.0 bin
neigh_modify     every 1 delay 0 check yes

variable        dt equal 0.1

group		    ATOMS type 1 3
512 atoms in group ATOMS
group		    DRUDES type 2 4
512 atoms in group DRUDES

velocity       	all create 50 12345
comm_modify     vel yes

timestep	    0.1

variable        TDK equal 1.0
variable        PBAR equal 1.0

variable        TD equal 0.1*100
variable        TDD equal 0.1*10
variable        PD equal 0.1*1000

fix             fshake all shake 0.0001 20 0 b 1
     256 = # of size 2 clusters
       0 = # of size 3 clusters
       0 = # of size 4 clusters
       0 = # of frozen angles
  find clusters CPU = 0.000 seconds
fix             1 all langevin/drude 50 10 712346 1 1 912102 zero yes
fix             2 ATOMS nph iso 1 1 100 dilate all
fix             3 DRUDES nve

thermo           100
thermo_style     custom step epair pe lx ly lz vol press density ecoul elong

dump            1 all custom 500 dump.coord id type x y z vx vy vz ix iy iz
dump_modify     1 sort id format line "%5d %3d %13.8f %13.8f %13.8f %13.8f %13.8f %13.8f %3d %3d %3d" flush yes

run          	1000000
PPPM initialization ...
  G vector (1/distance) = 0.40232367
  grid = 24 24 24
  stencil order = 7
  estimated absolute RMS force accuracy = 0.0001040049
  estimated relative force accuracy = 3.1320766e-07
  3d grid and FFT values/proc = 9261 1728
Using INTEL Package without Coprocessor.
Compiler: Intel Classic C++ 19.10.0 / Intel(R) C++ g++ 8.5 mode
SIMD compiler directives: Enabled
Precision: mixed
Generated 0 of 6 mixed pair_coeff terms from geometric mixing rule
Rebuild special list taking Drude particles into account
Old max number of 1-2 to 1-4 neighbors: 3
New max number of 1-2 to 1-4 neighbors: 3 (+0)
  update every 1 steps, delay 0 steps, check yes
Step         E_pair         PotEng           Lx             Ly             Lz           Volume         Press         Density         E_coul         E_long
0  -714.23644     -606.61324      21.499414      21.499414      21.499414      9937.5623     -4760.0764      3.417702       9356.8319     -9642.9377
Averages over the last 5001 of 10001 rows, steps 500000 to 1000000:
E_pair PotEng Lx Ly Lz Volume Press Density E_coul E_long
-772.689 -723.455 20.889 20.889 20.889 9115.09 -203.315 3.72636 9250.3 -9637.24
Loop time of 751.263 on 8 procs for 1000000 steps with 1024 atoms

write_data 	    out.lammps nocoeff
System init for write_data ...
PPPM initialization ...
  G vector (1/distance) = 0.38506035
  grid = 20 20 20
  stencil order = 7
  estimated absolute RMS force accuracy = 0.0002914118
  estimated relative force accuracy = 8.7757797e-07
  3d grid and FFT values/proc = 6859 1200
Using INTEL Package without Coprocessor.
Compiler: Intel Classic C++ 19.10.0 / Intel(R) C++ g++ 8.5 mode
SIMD compiler directives: Enabled
Precision: mixed
Generated 0 of 6 mixed pair_coeff terms from geometric mixing rule
